/*--------------------------------*- C++ -*----------------------------------*\
| =========                 |                                                 |
| \\      /  F ield         | OpenFOAM: The Open Source CFD Toolbox           |
|  \\    /   O peration     | Version:  2312                                  |
|   \\  /    A nd           | Website:  www.openfoam.com                      |
|    \\/     M anipulation  |                                                 |
\*---------------------------------------------------------------------------*/
FoamFile
{
    version     2.0;
    format      ascii;
    arch        "LSB;label=32;scalar=64";
    class       polyBoundaryMesh;
    location    "constant/polyMesh";
    object      boundary;
}
// * * * * * * * * * * * * * * * * * * * * * * * * * * * * * * * * * * * * * //

6
(
    inlet
    {
        type            patch;
        nFaces          20;
        startFace       405606;
    }
    topwall
    {
        type            wall;
        nFaces          232;
        startFace       405626;
    }
    outlet
    {
        type            patch;
        nFaces          966;
        startFace       405858;
    }
    plate
    {
        type            patch;
        nFaces          296;
        startFace       406824;
    }
    wall1
    {
        type            wedge;
        nFaces          203312;
        startFace       407120;
    }
    wall2
    {
        type            wedge;
        nFaces          203312;
        startFace       610432;
    }
)

// ************************************************************************* //
